[Format]      =  4.0
[Frequency]   =  0
[Precision]   =  1e-008
[MinAngle]    =  30
[Depth]       =  39.370078740157481
[LengthUnits] =  inches
[ProblemType] =  axisymmetric
[Coordinates] =  cartesian
[Comment]     =  "Add comments here."
[PointProps]   = 0
[BdryProps]   = 1
  <BeginBdry>
    <BdryName> = "A=0"
    <BdryType> = 0
    <A_0> = 0
    <A_1> = 0
    <A_2> = 0
    <Phi> = 0
    <c0> = 0
    <c1> = 0
    <Mu_ssd> = 0
    <Sigma_ssd> = 0
  <EndBdry>
[BlockProps]  = 3
  <BeginBlock>
    <BlockName> = "Air"
    <Mu_x> = 1
    <Mu_y> = 1
    <H_c> = 0
    <H_cAngle> = 0
    <J_re> = 0
    <J_im> = 0
    <Sigma> = 0
    <d_lam> = 0
    <Phi_h> = 0
    <Phi_hx> = 0
    <Phi_hy> = 0
    <LamType> = 0
    <LamFill> = 1
    <NStrands> = 0
    <WireD> = 0
    <BHPoints> = 0
  <EndBlock>
  <BeginBlock>
    <BlockName> = "Coil"
    <Mu_x> = 1
    <Mu_y> = 1
    <H_c> = 0
    <H_cAngle> = 0
    <J_re> = 0
    <J_im> = 0
    <Sigma> = 0
    <d_lam> = 0
    <Phi_h> = 0
    <Phi_hx> = 0
    <Phi_hy> = 0
    <LamType> = 0
    <LamFill> = 1
    <NStrands> = 0
    <WireD> = 0
    <BHPoints> = 0
  <EndBlock>
  <BeginBlock>
    <BlockName> = "Roters 1020 1/2 Hard"
    <Mu_x> = 600
    <Mu_y> = 600
    <H_c> = 0
    <H_cAngle> = 0
    <J_re> = 0
    <J_im> = 0
    <Sigma> = 0
    <d_lam> = 0
    <Phi_h> = 0
    <Phi_hx> = 0
    <Phi_hy> = 0
    <LamType> = 0
    <LamFill> = 1
    <NStrands> = 0
    <WireD> = 0
    <BHPoints> = 29
      0	0
      0.10896400000000001	298.580378
      0.179122	375.89042499999999
      0.28889100000000001	473.218008
      0.41956199999999999	595.74617599999999
      0.56699600000000006	750
      0.71801099999999995	944.19405900000004
      0.86932500000000001	1188.6698940000001
      1.021836	1496.4467360000001
      1.1740409999999999	1883.914824
      1.3095699999999999	2371.7082449999998
      1.4322999999999999	2985.8037789999998
      1.529528	3758.9042519999998
      1.606687	4732.1800839999996
      1.672939	5957.4617600000001
      1.7397910000000001	7500
      1.804103	9441.9405879999995
      1.865272	11886.698942999999
      1.923557	14964.467361999999
      1.981957	18839.148236000001
      2.0408919999999999	23717.082450999998
      2.0938750000000002	29858.037791999999
      2.141273	37589.042522000003
      2.1829969999999999	47321.800836000002
      2.2186780000000002	59574.617603999999
      2.2479939999999998	75000
      2.27982	94419.405885
      2.3123939999999998	118866.989435
      2.3426960000000001	149644.67362300001
  <EndBlock>
[CircuitProps]  = 1
  <BeginCircuit>
    <CircuitName> = "Coil Current"
    <TotalAmps_re> = 0.80000000000000004
    <TotalAmps_im> = 0
    <CircuitType> = 1
  <EndCircuit>
[NumPoints] = 21
0.6875	0	0	0
0.8125	0	0	0
0.6875	2	0	0
1.75	1.6875	0	0
1.0391625682519692	1.6127879753379057	0	0
1.5625	2	0	0
1.5625	5.5	0	0
1.75	5.8125	0	0
0	6.75	0	0
0.8125	6.75	0	0
0.93217660582613293	5.8984567024270245	0	0
0.6875	5.5	0	0
0	-0.5	0	0
0.65625	-0.5	0	0
0	8	0	0
2.5	8	0	0
2.5	-2.5	0	0
0	-2.5	0	0
0.6875	6.75	0	0
0.46875	6.75	0	0
0.65625	5.4375	0	0
[NumSegments] = 23
0	1	0.01	0	0	0
2	0	0.01	0	0	0
4	3	-1	0	0	0
4	1	-1	0	0	0
2	5	-1	0	0	0
6	5	-1	0	0	0
9	10	-1	0	0	0
10	7	-1	0	0	0
11	2	0.01	0	0	0
11	6	-1	0	0	0
7	3	-1	0	0	0
12	13	0.01	0	0	1
14	15	-1	1	0	0
15	16	-1	1	0	0
16	17	-1	1	0	0
18	11	0.01	0	0	0
18	9	0.01	0	0	0
8	19	0.01	0	0	1
20	13	0.01	0	0	1
8	12	-1	0	0	1
19	20	0.01	0	0	1
14	8	-1	0	0	0
12	17	-1	0	0	0
[NumArcSegments] = 0
[NumHoles] = 0
[NumBlockLabels] = 4
1.125	3.75	2	0.20000000000000001	1	0	0	2550	0
1.625	2.75	3	0.20000000000000001	0	0	0	1	0
0.25	4.75	3	0.20000000000000001	0	0	1	1	0
1.375	6.875	1	0.20000000000000001	0	0	0	1	0
